snem197.m
%   (Optimal) Power flow data for Synthetic National Electricity Market (NEM) Australia - Tasmania subnetwork.
%
%   This dataset is derived by complementing and extending the S-NEM2300bus benchmark data and software
%   released under BSD licence, https://opensource.org/license/BSD-3-clause/
%   and as part the following work:
%   - F. Arraño-Vargas and G. Konstantinou, "Modular Design and Real-Time Simulators Toward Power System Digital Twins Implementation,"
%     in IEEE Transactions on Industrial Informatics, doi: 10.1109/TII.2022.3178713 (https://doi.org/10.1109/TII.2022.3178713)
%   - F. Arraño-Vargas and G. Konstantinou, "Synthetic Grid Modeling for Real-Time Simulations," 2021 IEEE PES Innovative Smart Grid Technologies - Asia (ISGT Asia),
%     2021, pp. 1-5, doi: 10.1109/ISGTAsia49270.2021.9715654 (https://doi.org/10.1109/ISGTAsia49270.2021.9715654)
%
%   The technical report on the dataset development can be found at: (arvix link)
%
%   Copyright (c) 2023 by Rahmat Heidari rahmat.heidarihaei@csiro.au
%   Licensed under the Creative Commons Attribution 4.0
%   International license, http://creativecommons.org/licenses/by/4.0/
%  

%% MATPOWER Case Format : Version 2
function mpc = NEM
mpc.version = '2';

%%-----  Power Flow Data  -----%%
%% system MVA base
mpc.baseMVA = 100;
%% bus data
%    bus_i    type    Pd    Qd    Gs    Bs    area    Vm    Va    baseKV    zone    Vmax    Vmin
mpc.bus = [
	2112	1	-18.45662472600812	0.0	0.0	10.795830222758003	5	0.9892710496475579	-16.21300726626961	33.0	1	1.1	0.9				
	2114	2	0.0	0.0	0.0	0.0	5	0.988029999999963	-9.489058153242349	13.8	1	1.1	0.9				
	2115	2	0.0	0.0	0.0	0.0	5	0.9828199999999624	-9.475048074851928	13.8	1	1.1	0.9				
	2116	2	0.0	0.0	0.0	0.0	5	0.9881999999999609	-8.41596206661469	13.8	1	1.1	0.9				
	2117	2	0.0	0.0	0.0	0.0	5	1.0551099999999674	-15.20584568837946	11.0	1	1.1	0.9				
	2118	2	1.43784302386409	0.0	0.0	0.0	5	0.9815899999999754	-21.24889756639202	13.8	1	1.1	0.9				
	2119	2	0.0	0.0	0.0	0.0	5	0.9472699999999736	-23.12029656061829	11.0	1	1.1	0.9				
	2120	1	0.0	0.0	0.0	0.0	5	0.9867540138761887	-25.77252436975623	11.5	1	1.1	0.9				
	2121	1	0.0	0.0	0.0	0.0	5	0.9873162444127156	-25.97406112335485	11.5	1	1.1	0.9				
	2122	1	0.0	0.0	0.0	0.0	5	0.9873162444127166	-25.974061123354872	11.5	1	1.1	0.9				
	2123	2	0.0	0.0	0.0	0.0	5	0.9930699999999739	-19.50710126875388	11.5	1	1.1	0.9				
	2124	2	5.34111425835183	1.84528285784936	0.0	0.0	5	1.055739999999976	-19.35097242029227	14.5	1	1.1	0.9				
	2125	2	0.0	0.0	0.0	0.0	5	1.052709999999975	-19.84216304873227	13.2	1	1.1	0.9				
	2126	2	0.0	0.0	0.0	0.0	5	1.0549499999999845	-5.957068761405664	11.0	1	1.1	0.9				
	2127	2	0.0	0.0	0.0	0.0	5	1.0482099999999845	-5.97390143805796	11.0	1	1.1	0.9				
	2128	2	0.0	0.0	0.0	0.0	5	1.0503499999999855	-6.117747198316691	11.0	1	1.1	0.9				
	2129	2	0.0	0.0	0.0	0.0	5	1.0057099999999846	-4.956388096476981	11.0	1	1.1	0.9				
	2130	2	0.0	0.0	0.0	0.0	5	1.0063999999999846	-5.163580510229564	11.0	1	1.1	0.9				
	2131	2	0.0	0.0	0.0	0.0	5	1.0036499999999855	-5.132106409468764	11.0	1	1.1	0.9				
	2132	2	0.0	0.0	0.0	0.0	5	1.0319899999999682	-8.50321338915992	11.0	1	1.1	0.9				
	2133	2	0.0	0.0	0.0	0.0	5	0.9613799999999837	-7.330784215862151	11.0	1	1.1	0.9				
	2134	2	0.0	0.0	0.0	0.0	5	0.9564499999999666	1.383629340060046	18.0	1	1.1	0.9				
	2135	2	0.0	0.0	0.0	0.0	5	0.9563999999999667	1.484562050913067	18.0	1	1.1	0.9				
	2136	3	0.0	0.0	0.0	0.0	5	0.9491999999999672	-2.566064614410412e-12	18.0	1	1.1	0.9				
	2137	1	0.0	0.0	0.0	0.0	5	0.9989284558399221	-17.17576131378201	6.6	1	1.1	0.9				
	2138	2	0.0	0.0	0.0	0.0	5	1.0235599999999774	-17.06932269618163	11.0	1	1.1	0.9				
	2139	2	0.0	0.0	0.0	0.0	5	1.0172099999999782	-18.2516958498589	11.0	1	1.1	0.9				
	2140	2	0.0	0.0	0.0	0.0	5	0.9884199999999744	-11.52684528788591	16.0	1	1.1	0.9				
	2141	1	0.0	0.0	0.0	0.0	5	0.9851027127018712	-17.160558437709515	16.0	1	1.1	0.9				
	2142	2	0.0	0.0	0.0	0.0	5	0.98836999999997	-12.26099282348346	16.0	1	1.1	0.9				
	2143	2	0.0	0.0	0.0	0.0	5	0.9868499999999706	-12.30471471464168	16.0	1	1.1	0.9				
	2144	2	0.0	0.0	0.0	0.0	5	0.9899399999999694	-11.80968315810109	16.0	1	1.1	0.9				
	2145	1	0.0	0.0	0.0	0.0	5	0.9814537163638125	-18.05794123151719	16.0	1	1.1	0.9				
	2146	1	-7.48757228344437	0.0	0.0	0.0	5	1.0458064099536146	-22.62885027498207	0.6899999999999998	1	1.1	0.9				
	2147	1	0.0	0.0	0.0	0.0	5	1.0291574124903669	-23.27718797868486	22.0	1	1.1	0.9				
	2148	2	0.0	0.0	0.0	0.0	5	1.072739999999978	-22.83921961218258	1.0	1	1.1	0.9				
	2149	1	0.0	0.0	0.0	-5.707333615810607	5	0.9917766232329166	-16.15057865453107	13.8	1	1.1	0.9				
	2150	1	0.0	0.0	0.0	-6.037795464042566	5	0.9915434003621789	-16.1500205260412	13.8	1	1.1	0.9				
	2152	1	0.0	0.0	0.0	0.0	5	1.0322179518767036	-18.62283211417683	110.0	1	1.1	0.9				
	2153	1	0.0	0.0	0.0	0.0	5	1.0296384456928327	-18.71443108763672	110.0	1	1.1	0.9				
	2155	1	0.0	0.0	0.0	0.0	5	1.029358766737101	-18.53481022092111	110.0	1	1.1	0.9				
	2156	1	0.0	0.0	0.0	0.0	5	1.0321434824700746	-18.62190247396134	110.0	1	1.1	0.9				
	2157	1	0.0	0.0	0.0	0.0	5	1.0246072245334255	-19.39283891011664	110.0	1	1.1	0.9				
	2158	1	0.0	0.0	0.0	0.0	5	1.0280800159212082	-18.80424427533249	110.0	1	1.1	0.9				
	2160	1	0.0	0.0	0.0	0.0	5	1.030239148425398	-23.25155278564667	110.0	1	1.1	0.9				
	2161	1	0.0	0.0	0.0	0.0	5	1.0298979163191582	-23.43188183267197	110.0	1	1.1	0.9				
	2162	1	0.0	0.0	0.0	0.0	5	1.0273426353222792	-24.683561703395	110.0	1	1.1	0.9				
	2163	1	0.0	0.0	0.0	0.0	5	1.025492267571251	-24.85682165470057	110.0	1	1.1	0.9				
	2164	1	0.0	0.0	0.0	30.2475361833349	5	1.0381236669216882	-24.22099710888998	110.0	1	1.1	0.9				
	2165	1	0.0	0.0	0.0	0.0	5	1.0369786690845	-24.21526118327334	110.0	1	1.1	0.9				
	2166	1	0.0	0.0	0.0	29.894232766237096	5	1.0302264649004873	-23.25144886630597	110.0	1	1.1	0.9				
	2167	1	0.0	0.0	0.0	0.0	5	1.0307168732910854	-23.96898772933274	110.0	1	1.1	0.9				
	2168	1	0.0	0.0	0.0	0.0	5	1.0231642600894901	-23.87794214220728	110.0	1	1.1	0.9				
	2169	1	0.0	0.0	0.0	0.0	5	1.025611277320098	-23.70912916683793	110.0	1	1.1	0.9				
	2170	1	0.0	0.0	0.0	0.0	5	1.0262321341501854	-23.55802313083818	110.0	1	1.1	0.9				
	2171	1	0.0	0.0	0.0	0.0	5	1.0054221923977726	-21.08921997921235	110.0	1	1.1	0.9				
	2172	1	0.0	0.0	0.0	0.0	5	1.0155911786184337	-20.28243072670865	110.0	1	1.1	0.9				
	2173	1	0.0	0.0	0.0	27.5769489619415	5	1.0321907632602818	-25.97404479212958	110.0	1	1.1	0.9				
	2174	1	0.0	0.0	0.0	0.0	5	1.0294664820108792	-26.23850866449881	110.0	1	1.1	0.9				
	2175	1	109.56073877135671	5.564466014368461	0.0	0.0	5	1.0286410735762936	-26.387783469711355	110.0	1	1.1	0.9				
	2176	1	0.0	0.0	0.0	0.0	5	1.0180320222085428	-19.17667219695734	110.0	1	1.1	0.9				
	2177	1	0.0	0.0	0.0	0.0	5	1.017275017169279	-19.29365856979451	110.0	1	1.1	0.9				
	2178	1	0.0	0.0	0.0	0.0	5	1.0208968671416527	-18.44168455785722	110.0	1	1.1	0.9				
	2180	1	0.0	0.0	0.0	0.0	5	1.0521049759471799	-9.441695589474312	110.0	1	1.1	0.9				
	2183	1	0.0	0.0	0.0	0.0	5	1.0444188451714136	-10.94629438897348	110.0	1	1.1	0.9				
	2186	1	0.0	0.0	0.0	0.0	5	1.02615968379474	-11.57154785635901	110.0	1	1.1	0.9				
	2189	1	0.0	0.0	0.0	0.0	5	1.052307147666922	-9.453442420842276	110.0	1	1.1	0.9				
	2190	1	0.0	0.0	0.0	0.0	5	1.0213898975106936	-13.33567831722176	110.0	1	1.1	0.9				
	2192	1	0.0	0.0	0.0	0.0	5	1.02363142854976	-14.57547963894572	110.0	1	1.1	0.9				
	2193	1	0.0	0.0	0.0	0.0	5	1.0258335709655355	-14.01541046414393	110.0	1	1.1	0.9				
	2194	1	0.0	0.0	0.0	0.0	5	1.024653767082861	-14.26339022835959	110.0	1	1.1	0.9				
	2195	1	0.0	0.0	0.0	39.442905746400385	5	1.0229353069516054	-14.77813671605134	110.0	1	1.1	0.9				
	2198	1	0.0	0.0	0.0	0.0	5	1.0224268429166419	-14.924995913322961	110.0	1	1.1	0.9				
	2199	1	4.1484034366929	1.226811962736258	0.0	0.0	5	1.0943243991903566	-14.79895571287288	33.0	1	1.1	0.9				
	2200	1	0.0	0.0	0.0	0.0	5	1.0219940718710745	-15.05154039045583	110.0	1	1.1	0.9				
	2201	1	0.0	0.0	0.0	0.0	5	1.0219387283862174	-15.051271561860638	110.0	1	1.1	0.9				
	2202	1	0.0	0.0	0.0	0.0	5	1.0172684773958582	-15.44987718779515	110.0	1	1.1	0.9				
	2203	1	0.0	0.0	0.0	0.0	5	1.0215047718264618	-15.14638016724107	110.0	1	1.1	0.9				
	2204	1	0.0	0.0	0.0	0.0	5	1.0217819050202008	-14.426166370243312	110.0	1	1.1	0.9				
	2205	1	0.0	0.0	0.0	0.0	5	1.0218661369411564	-14.38137789435048	110.0	1	1.1	0.9				
	2206	1	0.0	0.0	0.0	0.0	5	1.0224164644898102	-14.3862573666353	110.0	1	1.1	0.9				
	2207	1	0.0	0.0	0.0	0.0	5	1.0185261848798728	-14.57533945520683	110.0	1	1.1	0.9				
	2208	1	0.0	0.0	0.0	0.0	5	0.9660015711330783	-20.04516282897815	110.0	1	1.1	0.9				
	2209	1	0.0	0.0	0.0	0.0	5	1.0161858248134827	-14.71933780818137	110.0	1	1.1	0.9				
	2210	1	0.0	0.0	0.0	0.0	5	1.0142969916955673	-14.83693599742162	110.0	1	1.1	0.9				
	2212	1	0.0	0.0	0.0	0.0	5	1.020436692358242	-15.17894251112132	110.0	1	1.1	0.9				
	2214	1	0.0	0.0	0.0	0.0	5	1.0147684000122736	-19.783825492362723	110.0	1	1.1	0.9				
	2215	1	0.0	0.0	0.0	0.0	5	1.0318104127705299	-16.62470997300982	110.0	1	1.1	0.9				
	2217	1	0.0	0.0	0.0	0.0	5	1.0390372764710192	-12.36198411891142	110.0	1	1.1	0.9				
	2219	1	0.0	0.0	0.0	0.0	5	1.0298569916179592	-17.16019818490092	110.0	1	1.1	0.9				
	2220	1	0.0	0.0	0.0	0.0	5	1.01631743605445	-19.72431678165227	110.0	1	1.1	0.9				
	2221	1	25.5331817143029	4.24297217381746	0.0	0.0	5	1.0993393044559845	-22.72160099609777	22.0	1	1.1	0.9				
	2222	1	0.0	0.0	0.0	0.0	5	1.01893794075006	-18.11864827298163	110.0	1	1.1	0.9				
	2223	1	0.0	0.0	0.0	0.0	5	1.0145842993272518	-20.00032214736967	110.0	1	1.1	0.9				
	2224	1	0.0	0.0	0.0	0.0	5	1.0162348517264008	-19.7156126169275	110.0	1	1.1	0.9				
	2225	1	0.0	0.0	0.0	0.0	5	1.0147477475748472	-20.00135541294635	110.0	1	1.1	0.9				
	2226	1	0.844463851361163	0.8114868596294891	0.0	0.0	5	1.0375979610570718	-24.2535844568909	110.0	1	1.1	0.9				
	2227	1	0.0	0.0	0.0	0.0	5	1.0162345576105354	-20.29594515332106	110.0	1	1.1	0.9				
	2228	1	1.2457492680387598	-0.664264286632184	0.0	0.0	5	1.032214299252591	-25.988549521459692	110.0	1	1.1	0.9				
	2229	1	0.0	0.0	0.0	0.0	5	1.0300101706900573	-23.95959433065251	110.0	1	1.1	0.9				
	2231	1	0.0	0.0	0.0	0.0	5	1.0145211168227537	-18.67274615403304	110.0	1	1.1	0.9				
	2232	1	0.0	0.0	0.0	0.0	5	1.0220519473997536	-15.026956258304992	110.0	1	1.1	0.9				
	2233	1	0.0	0.0	0.0	0.0	5	1.0220251670322253	-15.022579552431917	110.0	1	1.1	0.9				
	2234	1	6.30917010282744	0.35239491717051696	0.0	0.0	5	1.0199072659910848	-16.36817405275658	33.0	1	1.1	0.9				
	2235	1	6.39434930019695	0.321420691079041	0.0	0.0	5	1.0200819582369638	-16.36394690394274	33.0	1	1.1	0.9				
	2237	1	0.0	0.0	0.0	0.0	5	1.0145790484582364	-14.811271931403812	110.0	1	1.1	0.9				
	2238	1	0.0	0.0	0.0	0.0	5	1.0259983244759345	-17.0772235418764	110.0	1	1.1	0.9				
	2239	1	0.0	0.0	0.0	0.0	5	1.0637339871937446	-15.87506937968792	220.0	1	1.1	0.9				
	2240	1	0.0	0.0	0.0	0.0	5	1.062747550173364	-15.84778324294497	220.0	1	1.1	0.9				
	2241	1	0.0	0.0	0.0	0.0	5	1.0601433689426427	-16.75045808479722	220.0	1	1.1	0.9				
	2242	1	0.0	0.0	0.0	0.0	5	1.060235533640715	-17.26621151697347	220.0	1	1.1	0.9				
	2243	1	0.0	0.0	0.0	0.0	5	1.0586963749674714	-17.25549734359493	220.0	1	1.1	0.9				
	2244	1	0.0	0.0	0.0	0.0	5	1.051989765801392	-20.217224680694912	220.0	1	1.1	0.9				
	2247	1	0.0	0.0	0.0	0.0	5	1.0490206172661318	-21.16650701683569	220.0	1	1.1	0.9				
	2249	1	0.0	0.0	0.0	0.0	5	1.0483912402037672	-21.15965469998395	220.0	1	1.1	0.9				
	2250	2	761.8020958286985	94.39828227146312	0.0	269.6068504415632	5	1.0296740373743591	-24.79276502758318	220.0	1	1.1	0.9				
	2255	1	0.0	0.0	0.0	0.0	5	1.0492486487961408	-13.85483362343923	220.0	1	1.1	0.9				
	2259	1	0.0	0.0	0.0	0.0	5	1.0494538948179386	-13.01435494173578	220.0	1	1.1	0.9				
	2261	1	0.0	0.0	0.0	0.0	5	1.0442256085593427	-4.58558146103813	220.0	1	1.1	0.9				
	2262	1	0.0	0.0	0.0	0.0	5	1.0385769617593068	-11.76041861268009	220.0	1	1.1	0.9				
	2263	1	0.0	0.0	0.0	0.0	5	1.057482072980616	-15.30154127270596	220.0	1	1.1	0.9				
	2268	1	0.0	0.0	0.0	0.0	5	1.0507835169384796	-15.609004081076431	220.0	1	1.1	0.9				
	2269	1	0.0	0.0	0.0	0.0	5	1.0482670120936812	-18.05762958780429	220.0	1	1.1	0.9				
	2270	1	0.0	0.0	0.0	0.0	5	1.0384657423396055	-20.59648558559417	220.0	1	1.1	0.9				
	2272	1	0.10003649929077371	-0.13330990294576628	0.0	0.0	5	1.03948985613994	-23.72507962489301	11.0	1	1.1	0.9				
	2273	1	19.95778869203848	4.7859495971716	0.0	0.0	5	1.0320083393996549	-23.18020473619859	22.0	1	1.1	0.9				
	2274	1	14.104907698784938	9.04776996574207	0.0	0.0	5	0.9893770164696383	-15.852177747092682	6.6	1	1.1	0.9				
	2275	1	11.186850288082379	5.37348015239737	0.0	0.0	5	1.0003140403536441	-14.73528726991567	6.6	1	1.1	0.9				
	2276	1	1.233107867487501	0.521934969551628	0.0	0.0	5	1.006913043171447	-13.81231004796215	6.6	1	1.1	0.9				
	2277	1	38.265644643644194	12.083769897586519	0.0	0.0	5	1.0291138385409988	-17.47754323953622	33.0	1	1.1	0.9				
	2278	1	15.34797100767754	0.1797803614181466	0.0	0.0	5	1.0205120788874265	-16.58551465997508	33.0	1	1.1	0.9				
	2279	1	28.122039634649198	17.094118758766264	0.0	0.0	5	0.9898081629000567	-22.85508646581636	44.0	1	1.1	0.9				
	2280	1	2.2926686986223803	-0.21934176889881496	0.0	0.0	5	1.0179220678337146	-18.85216240169621	22.0	1	1.1	0.9				
	2281	1	-5.28103313928014	1.57365585478968	0.0	0.0	5	0.97826138118871	-17.02817873313822	11.0	1	1.1	0.9				
	2282	1	0.5954664766365659	0.164574361555371	0.0	0.0	5	1.023478271707599	-19.57698287577192	22.0	1	1.1	0.9				
	2283	1	2.86565043062568	0.9180621844714512	0.0	0.0	5	1.0379494520603652	-20.74992107161404	22.0	1	1.1	0.9				
	2284	1	0.10215504828840499	-0.07624182731648911	0.0	0.0	5	1.0288519284694282	-18.87106231725888	11.0	1	1.1	0.9				
	2285	1	14.893968516166831	5.50440336707248	0.0	0.0	5	1.0126491102834432	-26.63273906627095	22.0	1	1.1	0.9				
	2286	1	12.79405631512897	4.23152802724112	0.0	0.0	5	1.0349952719353563	-26.1648963914646	22.0	1	1.1	0.9				
	2287	1	32.8164347707108	4.9383484389306895	0.0	0.0	5	1.0130604950687556	-27.08084241175583	22.0	1	1.1	0.9				
	2288	1	4.969286691016694	2.3123035960519642	0.0	0.0	5	1.016874463217968	-25.01162006421151	11.0	1	1.1	0.9				
	2289	1	11.88898872021139	2.2430057880878502	0.0	0.0	5	1.0384908056954192	-25.49902500551748	22.0	1	1.1	0.9				
	2290	1	35.35571077000594	11.43917336843214	0.0	0.0	5	1.0270033105596745	-27.01666436722938	22.0	1	1.1	0.9				
	2291	1	37.048781804362804	13.56316755613722	0.0	0.0	5	1.0260119302617132	-28.48501465345068	22.0	1	1.1	0.9				
	2292	1	9.25709532036334	1.285278495783359	0.0	0.0	5	1.0017941132817687	-27.43024545821921	22.0	1	1.1	0.9				
	2293	1	6.8196875432964	1.66570804022136	0.0	0.0	5	1.0147294794956867	-19.77631315623392	22.0	1	1.1	0.9				
	2294	1	0.0	0.0	0.0	0.0	5	0.9727459429648896	-18.44168455785723	22.0	1	1.1	0.9				
	2295	1	1.1277204405401802	-0.131104909685906	0.0	0.0	5	1.0494280836513314	-10.34519887787562	22.0	1	1.1	0.9				
	2296	1	3.9179577825922496	1.1294581421904302	0.0	0.0	5	1.0580704245854142	-12.5845079323363	22.0	1	1.1	0.9				
	2297	1	0.09845539502799511	-0.15901145197441802	0.0	0.0	5	1.0545103994331686	-9.540796081465645	22.0	1	1.1	0.9				
	2298	1	7.005330225560809	0.63426609095335	0.0	0.0	5	1.0044474991618326	-17.03709829323878	11.0	1	1.1	0.9				
	2299	1	4.767843117410499	-0.3576221538626119	0.0	0.0	5	1.012203943225241	-16.34714669718289	11.0	1	1.1	0.9				
	2300	1	6.817376398877331	1.5293180603922338	0.0	0.0	5	1.038812822175421	-15.35276088742803	11.0	1	1.1	0.9				
	2301	1	6.357613794678221	1.104834498306596	0.0	0.0	5	1.0399753945290047	-15.272840932079617	11.0	1	1.1	0.9				
	2302	1	10.55584310108414	3.51356873629801	0.0	0.0	5	1.0138327049493927	-18.11172750639554	11.0	1	1.1	0.9				
	2303	1	7.9547446200374505	1.73341208708589	0.0	0.0	5	1.0172671035658574	-17.89192492916023	11.0	1	1.1	0.9				
	2304	1	2.9145850639238504	-0.20232489533424403	0.0	0.0	5	1.0225808913461591	-16.15903916275169	11.0	1	1.1	0.9				
	2305	1	3.2008208254247896	-0.0306372322946787	0.0	0.0	5	1.0212443829924935	-16.22066674625251	11.0	1	1.1	0.9				
	2306	1	1.23069639581465	0.148527247897536	0.0	0.0	5	1.0162222870716586	-15.820213942756112	22.0	1	1.1	0.9				
	2307	1	1.22012735772375	0.141469365238398	0.0	0.0	5	1.016307987487936	-15.793751163848842	22.0	1	1.1	0.9				
	2308	1	2.6974127487645	-0.518176212407649	0.0	0.0	5	1.0245676077218244	-15.449493600804193	11.0	1	1.1	0.9				
	2309	1	3.66248952773656	0.268230288469139	0.0	0.0	5	1.031752446014549	-15.687149755072268	11.0	1	1.1	0.9				
	2310	1	4.38782797689875	1.244169953752356	0.0	0.0	5	1.0150932963810873	-15.151429561216371	11.0	1	1.1	0.9				
	2311	1	11.31460263487744	3.43865919710733	0.0	0.0	5	1.0036387772072972	-20.04512183919965	11.0	1	1.1	0.9				
	2312	1	3.43738724450884	1.2064342375681738	0.0	0.0	5	1.0072495865048146	-15.78069558698501	11.0	1	1.1	0.9				
	2313	1	12.75081507823046	0.9336974987668458	0.0	0.0	5	1.0413966986936072	-17.34855046066847	22.0	1	1.1	0.9				
	2314	1	10.675037461534181	2.7200189300431	0.0	0.0	5	1.012240650937867	-15.13074029559587	22.0	1	1.1	0.9				
	2315	1	29.58494142791117	5.38569534337124	0.0	0.0	5	0.998542019939164	-22.4252541529333	22.0	1	1.1	0.9				
	2316	1	5.992160853297911	2.30522543602036	0.0	0.0	5	1.0042987916872037	-18.04160455186867	22.0	1	1.1	0.9				
	2317	1	9.06709590132348	2.28521256108359	0.0	0.0	5	1.0440482200674108	-21.2137352165843	22.0	1	1.1	0.9				
	2318	1	10.36757488414203	-0.0485898785246537	0.0	0.0	5	1.0153113249765695	-21.17308954131714	22.0	1	1.1	0.9				
	2319	1	0.0	0.0	0.0	0.0	5	1.030197587981174	-23.02342283597318	22.0	1	1.1	0.9				
	2320	1	16.1407656256639	3.3981742264056507	0.0	0.0	5	1.0001537058556877	-22.44012098543217	22.0	1	1.1	0.9				
	2321	1	5.512170804402	-0.297153097662144	0.0	0.0	5	1.019865223461809	-20.05441067998382	22.0	1	1.1	0.9				
	2322	1	0.268542500051344	0.31925762779302896	0.0	0.0	5	1.064091140262729	-14.8854324976392	11.0	1	1.1	0.9				
	2323	1	0.0	0.0	0.0	0.0	5	1.0491067870017945	-9.694714627305673	110.0	1	1.1	0.9				
	2324	1	0.0	0.0	0.0	0.0	5	1.042291805924153	-15.64890063897033	1.0	1	1.1	0.9				
	2325	1	0.0	0.0	0.0	0.0	5	1.0422805039944618	-15.62348805623716	1.0	1	1.1	0.9				
	2326	1	0.0	0.0	0.0	0.0	5	1.042130127935355	-15.65609747471875	1.0	1	1.1	0.9				
	2328	1	0.0	0.0	0.0	0.0	5	1.0665132681809018	-15.29579955773213	22.0	1	1.1	0.9				
	2329	2	0.0	0.0	0.0	0.0	5	0.9862199999999701	-15.80443024403233	11.0	1	1.1	0.9				
	2330	2	0.0	0.0	0.0	0.0	5	0.9872699999999744	-21.180699409873	11.0	1	1.1	0.9				
	2331	2	0.0	0.0	0.0	0.0	5	0.9815299999999673	-7.768191487317035	11.0	1	1.1	0.9				
	2332	2	0.0	0.0	0.0	0.0	5	1.0140299999999682	-7.444253160684965	11.0	1	1.1	0.9				
	2333	2	0.0	0.0	0.0	0.0	5	1.0059899999999709	-12.15077499929403	11.0	1	1.1	0.9				
	2334	2	0.0	0.0	0.0	0.0	5	0.9981299999999681	-9.011952406890899	11.0	1	1.1	0.9				
	2335	2	0.0	0.0	0.0	0.0	5	1.0040799999999674	-8.872694444094716	11.0	1	1.1	0.9				
	2336	1	32.7033081653496	10.65448662680355	0.0	0.0	5	1.0000838389073212	-16.1032481711975	33.0	1	1.1	0.9				
	2337	1	49.533782369824856	16.247922276092698	0.0	0.0	5	1.0705438206043782	-18.22239436310862	11.0	1	1.1	0.9				
	2338	1	1.71129514994603	2.6494563332431	0.0	0.0	5	1.0182916508617224	-18.523394344049212	22.0	1	1.1	0.9				
	2339	1	15.716992921065811	-4.31763789598276	0.0	0.0	5	1.019843252188255	-16.73850262245381	6.6	1	1.1	0.9				
	10108	1	0.0	0.0	0.0	0.0	5	1.0	0.0	110.0	1	1.1	0.9				
	10109	1	0.0	0.0	0.0	0.0	5	1.0	0.0	110.0	1	1.1	0.9				
	10110	1	0.0	0.0	0.0	0.0	5	1.0	0.0	110.0	1	1.1	0.9				
	10111	1	0.0	0.0	0.0	0.0	5	1.0	0.0	110.0	1	1.1	0.9				
	10112	1	0.0	0.0	0.0	0.0	5	1.0	0.0	110.0	1	1.1	0.9				
	10113	1	0.0	0.0	0.0	0.0	5	1.0	0.0	110.0	1	1.1	0.9				
];

%% generator data
%    bus    Pg    Qg    Qmax    Qmin    Vg    mBase    status    Pmax    Pmin    Pc1    Pc2    Qc1min    Qc1max    Qc2min    Qc2max    ramp_agc    ramp_10    ramp_30    ramp_q    apf
mpc.gen = [
	2114	100.949965172718	15.8580971790647	110.00000000000001	-90.0	0.98803	147.69696593489502	1	150.0	0.0															
	2115	101.98801294916	11.2237937533833	120.0	-110.00000000000001	0.98282	147.170128862932	1	150.0	0.0															
	2116	73.44618478614161	11.7072726332725	60.0	-40.0	0.9882	99.82682290775702	1	100.0	0.0															
	2117	47.216573469236	1.2136413577921699	20.0	-20.0	1.05511	59.56099006	1	60.0	0.0															
	2118	0.0	-0.006768525156425311	90.0	-80.0	0.98159	123.24446895776799	1	130.0	0.0															
	2119	2.05432535428554	-3.6955045059300002	20.0	-20.0	0.94727	37.868305058335	1	40.0	0.0															
	2123	49.579877537453484	-7.53504049162455	50.0	-30.0	0.99307	72.60313276841859	1	80.0	0.0															
	2124	137.396424963428	23.1323326218313	120.0	-40.0	1.05574	192.64760894081599	1	200.0	0.0															
	2125	64.71147344283762	8.644864607815817	70.0	-20.0	1.05271	96.0025555250328	1	100.0	0.0															
	2126	9.82450783043848	0.050819844169588804	20.0	-10.0	1.05495	16.4278021572973	1	20.0	0.0															
	2127	34.9319525974112	0.009933722652494908	20.0	-20.0	1.04821	40.33056631	1	50.0	0.0															
	2128	32.3089076933498	0.9419516572624909	20.0	-20.0	1.05035	40.0795192	1	50.0	0.0															
	2129	24.963966136035697	0.239045050738007	20.0	-10.0	1.00571	33.6463986921869	1	40.0	0.0															
	2130	24.074777174613402	0.46368007554411894	20.0	-10.0	1.0064	33.3273031253414	1	40.0	0.0															
	2131	24.1970479211855	-0.379025940144062	20.0	-10.0	1.00365	34.233340868547096	1	40.0	0.0															
	2132	28.4679129616367	10.404304921856601	30.0	-10.0	1.03199	37.7499579498544	1	40.0	0.0															
	2133	34.3623818564035	-10.1806803593985	40.0	-20.0	0.96138	53.9771218854003	1	60.0	0.0															
	2134	105.10400928355598	3.30291061631516	70.0	-50.0	0.95645	169.174009550363	1	170.0	0.0															
	2135	104.805398459447	3.11307038174029	80.0	-70.0	0.9564	175.344738017768	1	180.0	0.0															
	2136	85.445430155	-7.1366510739999995	80.0	-60.0	0.9492	168.12110569328098	1	170.0	0.0															
	2138	26.2199891117512	-0.79302688851878	40.0	-30.0	1.02356	33.7659113864647	1	40.0	0.0															
	2139	15.9424347942778	-4.483969936649319	20.0	-10.0	1.01721	36.76534479	1	40.0	0.0															
	2140	53.38467952529129	2.89706152168536	70.0	-50.0	0.98842	67.9893259308301	1	70.0	0.0															
	2142	53.8733716477824	5.237919695317279	70.0	-40.0	0.98837	68.36997707287081	1	70.0	0.0															
	2143	55.89335614416999	4.376945288409251	70.0	-40.0	0.98685	66.6358637739904	1	70.0	0.0															
	2144	57.6238744085221	6.15992598070428	70.0	-40.0	0.98994	67.2894188493956	1	70.0	0.0															
	2148	7.435417173533231	-0.30898741889148995	10.0	-20.0	1.07274	83.72531062298448	1	90.0	0.0															
	2329	45.9946811998802	1.32156310736672	30.0	-20.0	0.98622	65.7624427797273	1	70.0	0.0															
	2330	0.0	1.59340415728837	20.0	-10.0	0.98727	36.1447293923702	1	40.0	0.0															
	2331	26.4788677188798	-4.81024136099475	20.0	-20.0	0.98153	32.9465583476471	1	40.0	0.0															
	2332	28.290144359801197	3.03866334651271	10.0	-20.0	1.01403	34.046855572122205	1	40.0	0.0															
	2333	13.345418793149303	-0.167070114086708	10.0	-10.0	1.00599	16.3866927560885	1	20.0	0.0															
	2334	21.9071191165335	-1.67227254103906	20.0	-10.0	0.99813	32.5552539895289	1	40.0	0.0															
	2335	21.9217522649333	-0.147830591569655	20.0	-10.0	1.00408	31.920388778904503	1	40.0	0.0															
	2250	0.0	-198.58333244421001	550.0	-540.0	1.0296740373743591	5.4335858526174	1	550.0	0.0															
];

%% branch data
%    f_bus    t_bus    r    x    b    rateA    rateB    rateC    ratio    angle    status    angmin    angmax
mpc.branch = [
	2152	2156	0.008344505284960379	0.037105775682181076	0.0038886672524227786	160.0	160.0	160.0	0	0	1	-59.99999999999999	59.99999999999999								
	2153	2156	0.006612602031002754	0.017109146623965392	0.0016563345429301303	114.99999999999999	114.99999999999999	114.99999999999999	0	0	1	-59.99999999999999	59.99999999999999								
	2153	2156	0.005506519284810398	0.01496983999272579	0.0017271481722616598	119.0	119.0	119.0	0	0	1	-59.99999999999999	59.99999999999999								
	2155	2153	0.013939727080035998	0.10292674293550903	0.012307472631685403	218.00000000000003	218.00000000000003	218.00000000000003	0	0	1	-59.99999999999999	59.99999999999999								
	2156	2157	0.0254533465899588	0.07215540384607336	0.006800530361052142	122.0	122.0	122.0	0	0	1	-59.99999999999999	59.99999999999999								
	2157	2172	0.02999910991285181	0.08544870272021178	0.008448748178319075	122.0	122.0	122.0	0	0	1	-59.99999999999999	59.99999999999999								
	2158	2153	0.04463171725285978	0.07024435167216506	0.005571387344682591	85.0	85.0	85.0	0	0	1	-59.99999999999999	59.99999999999999								
	2160	2166	0.002217818070936019	0.015054231287409592	0.0016355893109589795	206.99999999999997	206.99999999999997	206.99999999999997	0	0	1	-59.99999999999999	59.99999999999999								
	2161	2166	0.009794861790234215	0.02494720302135499	0.002968596249282359	113.99999999999999	113.99999999999999	113.99999999999999	0	0	1	-59.99999999999999	59.99999999999999								
	2161	2167	0.022569879982047694	0.05988417779164287	0.006609730931470169	117.0	117.0	117.0	0	0	1	-59.99999999999999	59.99999999999999								
	2162	2163	0.0368750920058191	0.07127163929548117	0.0162320841231802	97.0	97.0	97.0	0	0	1	-59.99999999999999	59.99999999999999								
	2162	2164	0.13317272760672502	0.242714886019933	0.0159793607747415	93.0	93.0	93.0	0	0	1	-59.99999999999999	59.99999999999999								
	2162	2229	0.012501498767733602	0.09062168087871282	0.03402989954268561	215.0	215.0	215.0	0	0	1	-59.99999999999999	59.99999999999999								
	2163	2164	0.10060914863677697	0.1762482383539389	0.0157835522057069	91.0	91.0	91.0	0	0	1	-59.99999999999999	59.99999999999999								
	2164	2165	0.00386886836306751	0.010376907300827996	0.0011530489629087996	118.0	118.0	118.0	0	0	1	-59.99999999999999	59.99999999999999								
	2164	2166	0.0548456849238351	0.14605102686716293	0.015865389144659	117.0	117.0	117.0	0	0	1	-59.99999999999999	59.99999999999999								
	2164	2226	0.03220120076421179	0.08498370296025178	0.009049204976200126	117.0	117.0	117.0	0	0	1	-59.99999999999999	59.99999999999999								
	2165	2167	0.03265710417714621	0.08410553118825326	0.009557468426549814	114.99999999999999	114.99999999999999	114.99999999999999	0	0	1	-59.99999999999999	59.99999999999999								
	2166	2168	0.0094845087677706	0.05040768457602759	0.006227096123760101	178.0	178.0	178.0	0	0	1	-59.99999999999999	59.99999999999999								
	2166	2169	0.021352137328784	0.08316763165316725	0.009389051099738569	148.0	148.0	148.0	0	0	1	-59.99999999999999	59.99999999999999								
	2166	2170	0.006484337441509589	0.03443856679479398	0.00404136947009386	178.0	178.0	178.0	0	0	1	-59.99999999999999	59.99999999999999								
	2166	2170	0.00693898262637388	0.032642249958517985	0.004250792714192071	166.0	166.0	166.0	0	0	1	-59.99999999999999	59.99999999999999								
	2168	2169	0.012330789449186997	0.03281061694200618	0.0034713036957755698	117.0	117.0	117.0	0	0	1	-59.99999999999999	59.99999999999999								
	2171	2172	0.030115664385611692	0.07960466187231983	0.008493227195844522	117.0	117.0	117.0	0	0	1	-59.99999999999999	59.99999999999999								
	2172	2227	0.043853785448283	0.11777375572089094	0.010752625594792904	118.0	118.0	118.0	0	0	1	-59.99999999999999	59.99999999999999								
	2173	2175	0.0036354707360034782	0.009799229272231452	0.0013204602313251195	118.0	118.0	118.0	0	0	1	-59.99999999999999	59.99999999999999								
	2173	2228	0.00817779703512788	0.016697325252618588	0.0016922451391965193	100.0	100.0	100.0	0	0	1	-59.99999999999999	59.99999999999999								
	2174	2175	0.00345243411819823	0.009417775688662653	0.0010653063090518096	119.0	119.0	119.0	0	0	1	-59.99999999999999	59.99999999999999								
	2176	2177	0.005443984630722551	0.018950843333029193	0.0013044606222384608	138.0	138.0	138.0	0	0	1	-59.99999999999999	59.99999999999999								
	2176	2178	0.016235662227007595	0.07280548926056826	0.00196806784169748	161.0	161.0	161.0	0	0	1	-59.99999999999999	59.99999999999999								
	2176	2224	0.039440877304365886	0.1379526327592129	0.0041444190107286	138.0	138.0	138.0	0	0	1	-59.99999999999999	59.99999999999999								
	2177	2224	0.047367225759266905	0.1599663523930119	0.003950881932675842	135.0	135.0	135.0	0	0	1	-59.99999999999999	59.99999999999999								
	2178	2238	0.03418951243213098	0.13430156701253695	0.018231527371257498	148.0	148.0	148.0	0	0	1	-59.99999999999999	59.99999999999999								
	2180	2126	0.050705952685127474	0.6867452991275059	0.0013541401145704007	46.0	46.0	46.0	1.0	0.0	1	-59.99999999999999	59.99999999999999								
	2180	2189	0.0392573585555311	0.058002956481976384	0.004940463718026882	82.0	82.0	82.0	0	0	1	-59.99999999999999	59.99999999999999								
	2180	2323	0.03007769100522989	0.05185581050061807	0.00394640633368772	90.0	90.0	90.0	0	0	1	-59.99999999999999	59.99999999999999								
	2183	2217	0.022092430227871503	0.06483366400483899	0.006061390816604723	124.0	124.0	124.0	0	0	1	-59.99999999999999	59.99999999999999								
	2183	2323	0.0189442508493876	0.057645648069029685	0.005098807709572841	127.0	127.0	127.0	0	0	1	-59.99999999999999	59.99999999999999								
	2217	2323	0.04188953500150953	0.11629788020967574	0.01091064523580617	120.0	120.0	120.0	0	0	1	-59.99999999999999	59.99999999999999								
	2186	2190	0.021955375649680378	0.07907001240310814	0.009699590603645893	141.0	141.0	141.0	0	0	1	-59.99999999999999	59.99999999999999								
	2186	2323	0.09326695346117021	0.18336831321998492	0.015992638318470705	98.0	98.0	98.0	0	0	1	-59.99999999999999	59.99999999999999								
	2186	2190	0.0219083921358204	0.08569771567657117	0.009593339979723566	148.0	148.0	148.0	0	0	1	-59.99999999999999	59.99999999999999								
	2186	2323	0.09514051628585721	0.17641832405948105	0.0165238766949186	94.0	94.0	94.0	0	0	1	-59.99999999999999	59.99999999999999								
	2192	2198	0.011307095644697498	0.050853422247963	0.0066380290927514395	161.0	161.0	161.0	0	0	1	-59.99999999999999	59.99999999999999								
	2192	2217	0.0809689857371156	0.1597802651584059	0.056354651273721794	98.0	98.0	98.0	0	0	1	-59.99999999999999	59.99999999999999								
	2193	2194	0.0032044757057726383	0.013751261481909093	0.0017782006577542107	157.0	157.0	157.0	0	0	1	-59.99999999999999	59.99999999999999								
	2193	2194	0.0032290101088583486	0.013860228257736697	0.0016375393909076202	157.0	157.0	157.0	0	0	1	-59.99999999999999	59.99999999999999								
	2193	2194	0.0016134275212101603	0.011403984225341099	0.001203772326814941	212.0	212.0	212.0	0	0	1	-59.99999999999999	59.99999999999999								
	2193	2195	0.004667560147074981	0.022093079821914392	0.002608203896095512	166.0	166.0	166.0	0	0	1	-59.99999999999999	59.99999999999999								
	2193	2205	0.016025860995871506	0.04450729081711919	0.004873642972311002	120.0	120.0	120.0	0	0	1	-59.99999999999999	59.99999999999999								
	2193	2206	0.018822100750030907	0.05135977957566779	0.009270280247638	119.0	119.0	119.0	0	0	1	-59.99999999999999	59.99999999999999								
	2193	2190	0.020571035576420794	0.057842618269473275	0.0056833629987463295	121.0	121.0	121.0	0	0	1	-59.99999999999999	59.99999999999999								
	2194	2195	0.0035544225968974596	0.011513761437893797	0.001307409372017721	132.0	132.0	132.0	0	0	1	-59.99999999999999	59.99999999999999								
	2194	10112	0.0028167553151113517	0.5265638401811447	0.07146267139932008	60.0	60.0	60.0	0.9877	0.0	1	-59.99999999999999	59.99999999999999								
	2194	2190	0.02196498516699759	0.06413143185821828	0.0006049942965712399	124.0	124.0	124.0	0	0	1	-59.99999999999999	59.99999999999999								
	2195	2198	0.0023173713241238093	0.010041276186469895	0.0010677093091681603	157.0	157.0	157.0	0	0	1	-59.99999999999999	59.99999999999999								
	2198	2203	0.0160672604063814	0.043755847347271594	0.004683966385252774	119.0	119.0	119.0	0	0	1	-59.99999999999999	59.99999999999999								
	2198	2212	0.028596394840087695	0.07321992307483166	0.00825107615814172	114.99999999999999	114.99999999999999	114.99999999999999	0	0	1	-59.99999999999999	59.99999999999999								
	2198	2232	0.004106622394144528	0.019969698820574186	0.0023196850752197212	169.0	169.0	169.0	0	0	1	-59.99999999999999	59.99999999999999								
	2198	2233	0.0039049297694112206	0.01879100063518159	0.0024277343462128197	168.0	168.0	168.0	0	0	1	-59.99999999999999	59.99999999999999								
	2200	2232	0.0033161570859551394	0.01508967043159159	0.001914417166847269	162.0	162.0	162.0	0	0	1	-59.99999999999999	59.99999999999999								
	2201	2233	0.00310765717618354	0.016267309971123894	0.0019262018873984898	177.0	177.0	177.0	0	0	1	-59.99999999999999	59.99999999999999								
	2202	2203	0.21097341708658304	0.18420501825211993	0.014928586995494606	60.0	60.0	60.0	0	0	1	-59.99999999999999	59.99999999999999								
	2203	2313	0.040314665182303616	0.6623830614989182	0.0033816566824145435	48.0	48.0	48.0	0.9749999999999999	0.0	1	-59.99999999999999	59.99999999999999								
	2204	2205	0.005585450999891389	0.015678477831796694	0.0015940749001358597	121.0	121.0	121.0	0	0	1	-59.99999999999999	59.99999999999999								
	2204	2206	0.006025723639337348	0.014902195548059391	0.0016651932186130404	112.00000000000001	112.00000000000001	112.00000000000001	0	0	1	-59.99999999999999	59.99999999999999								
	2205	2209	0.022830568767450796	0.06376820462110547	0.006229202903599942	121.0	121.0	121.0	0	0	1	-59.99999999999999	59.99999999999999								
	2206	2207	0.046753323149823986	0.044651792523229976	0.0037617549813538805	63.0	63.0	63.0	0	0	1	-59.99999999999999	59.99999999999999								
	2207	2209	0.0719883445636779	0.06116331989835708	0.004695094143772032	59.0	59.0	59.0	0	0	1	-59.99999999999999	59.99999999999999								
	2209	2237	0.0348107242368609	0.050860457719922994	0.005245086064070464	82.0	82.0	82.0	0	0	1	-59.99999999999999	59.99999999999999								
	2210	2237	0.0032696363180764005	0.014534249260523395	0.00145874859141419	160.0	160.0	160.0	0	0	1	-59.99999999999999	59.99999999999999								
	2190	2323	0.13769185404576798	0.27944169713767186	0.023672072419078996	99.0	99.0	99.0	0	0	1	-59.99999999999999	59.99999999999999								
	2214	2220	0.005464037500342819	0.017164896468018897	0.00589143396744318	130.0	130.0	130.0	0	0	1	-59.99999999999999	59.99999999999999								
	2214	2220	0.0036475865059918695	0.028606747968819908	0.0004142632371746001	225.99999999999997	225.99999999999997	225.99999999999997	0	0	1	-59.99999999999999	59.99999999999999								
	2215	2219	0.004673632000540381	0.018428991958795094	0.002451526928767562	149.0	149.0	149.0	0	0	1	-59.99999999999999	59.99999999999999								
	2219	2141	0.008430360916196072	0.1951966380094121	0.002371865527098911	162.0	162.0	162.0	1.0454545454545454	0.0	1	-59.99999999999999	59.99999999999999								
	2217	2219	0.038399645852949485	0.15647706117222088	0.0190922336806916	152.0	152.0	152.0	0	0	1	-59.99999999999999	59.99999999999999								
	2219	2137	1.2009799194082356	4.0361064311088635	0.009275864248733745	8.0	8.0	8.0	1.0314699999999999	0.0	1	-59.99999999999999	59.99999999999999								
	2219	2220	0.044756923604968905	0.12890038560204198	0.012667304816233908	123.0	123.0	123.0	0	0	1	-59.99999999999999	59.99999999999999								
	2219	2220	0.042474895608302185	0.11866241323918093	0.012016867148067802	121.0	121.0	121.0	0	0	1	-59.99999999999999	59.99999999999999								
	2219	2222	0.149471301929355	0.24283808096768486	0.019603325069821903	87.0	87.0	87.0	0	0	1	-59.99999999999999	59.99999999999999								
	2220	2224	0.0051782136404886795	0.025746951259076587	0.00295509923136234	171.0	171.0	171.0	0	0	1	-59.99999999999999	59.99999999999999								
	2220	2224	0.0051302910358533285	0.026152703162386985	0.003191748296881089	174.0	174.0	174.0	0	0	1	-59.99999999999999	59.99999999999999								
	2222	2231	0.10731612292516596	0.1634551194820719	0.014614566812057498	84.0	84.0	84.0	0	0	1	-59.99999999999999	59.99999999999999								
	2223	2225	0.0009853019952513276	0.008801583923071616	0.0366018740284299	244.0	244.0	244.0	0	0	1	-59.99999999999999	59.99999999999999								
	2223	2214	0.0015910540425330395	0.014708088120607692	0.04392845341656361	249.00000000000003	249.00000000000003	249.00000000000003	0	0	1	-59.99999999999999	59.99999999999999								
	2239	2243	0.00360884330952633	0.027201353864564088	0.052577014935982914	440.00000000000006	440.00000000000006	440.00000000000006	0	0	1	-59.99999999999999	59.99999999999999								
	2240	2243	0.00368515181837697	0.027291844710027293	0.05425249994394511	434.99999999999994	434.99999999999994	434.99999999999994	0	0	1	-59.99999999999999	59.99999999999999								
	2241	2243	0.00172089511687309	0.013583358020678197	0.025361995731093902	453.0	453.0	453.0	0	0	1	-59.99999999999999	59.99999999999999								
	2242	2243	0.005162631960686299	0.04012785024074558	0.07237259845727778	448.00000000000006	448.00000000000006	448.00000000000006	0	0	1	-59.99999999999999	59.99999999999999								
	2243	2249	0.008711778118244369	0.06757408855681027	0.12138338313257402	448.00000000000006	448.00000000000006	448.00000000000006	0	0	1	-59.99999999999999	59.99999999999999								
	2243	2249	0.00802602507800888	0.06747312326906667	0.117713203228534	470.0	470.0	470.0	0	0	1	-59.99999999999999	59.99999999999999								
	2244	2249	0.00683352590427361	0.03877333288070088	0.0597080006736307	370.0	370.0	370.0	0	0	1	-59.99999999999999	59.99999999999999								
	2249	2329	0.013345510709732382	0.20068051442716756	0.04958931019778054	158.0	158.0	158.0	1.0681000000000003	0.0	1	-59.99999999999999	59.99999999999999								
	2247	2249	0.0038375613989867306	0.0192588914578073	0.034801096088429906	344.0	344.0	344.0	0	0	1	-59.99999999999999	59.99999999999999								
	2249	2164	0.011606877635737787	0.14077961302898126	0.0633475515842874	224.00000000000003	224.00000000000003	224.00000000000003	1.0113099999999997	0.0	1	-59.99999999999999	59.99999999999999								
	2249	2250	0.00791666807699157	0.05727606139280268	0.08987527121134571	429.0	429.0	429.0	0	0	1	-59.99999999999999	59.99999999999999								
	2249	2250	0.00826038602419943	0.056684808072708474	0.09133500153360895	416.0	416.0	416.0	0	0	1	-59.99999999999999	59.99999999999999								
	2249	2269	0.0149387624799768	0.07040945665055597	0.10612777813635399	331.0	331.0	331.0	0	0	1	-59.99999999999999	59.99999999999999								
	2250	2270	0.009362156983057503	0.04063722666761742	0.07106541321416573	315.0	315.0	315.0	0	0	1	-59.99999999999999	59.99999999999999								
	2250	2270	0.009530805970702322	0.043717642190850774	0.0702173933262304	326.0	326.0	326.0	0	0	1	-59.99999999999999	59.99999999999999								
	2255	2259	0.004241384766482749	0.020566626998593095	0.030180928545248197	337.0	337.0	337.0	0	0	1	-59.99999999999999	59.99999999999999								
	2255	2262	0.016451510198609902	0.06823589374251939	0.11328297936569907	306.0	306.0	306.0	0	0	1	-59.99999999999999	59.99999999999999								
	2255	2268	0.006554625481029969	0.0304432815257479	0.04265818446549031	328.0	328.0	328.0	0	0	1	-59.99999999999999	59.99999999999999								
	2255	2268	0.0034343574328785796	0.025992298511858088	0.0477408341363221	441.0	441.0	441.0	0	0	1	-59.99999999999999	59.99999999999999								
	2259	2262	0.011067516472307002	0.05200116913262708	0.08565493517649549	330.0	330.0	330.0	0	0	1	-59.99999999999999	59.99999999999999								
	2261	2262	0.0132215266532078	0.08934000322618614	0.157666756026846	412.0	412.0	412.0	0	0	1	-59.99999999999999	59.99999999999999								
	2261	2262	0.0145171332655661	0.09384263004780985	0.16864495484053596	401.0	401.0	401.0	0	0	1	-59.99999999999999	59.99999999999999								
	2263	2268	0.0131560796875316	0.08245822682780489	0.142504390295667	393.0	393.0	393.0	0	0	1	-59.99999999999999	59.99999999999999								
	2263	2268	0.0129197396136872	0.07960153239614139	0.14335068766018808	389.0	389.0	389.0	0	0	1	-59.99999999999999	59.99999999999999								
	2269	2142	0.005349792141510688	0.18297758712940976	0.00877871706562047	173.0	173.0	173.0	1.0681000000000003	0.0	1	-59.99999999999999	59.99999999999999								
	2269	2144	0.005529170436296137	0.18471523476496238	0.008603787979386346	171.0	171.0	171.0	1.0681000000000003	0.0	1	-59.99999999999999	59.99999999999999								
	2269	2145	0.006169406944787759	0.1754504235860824	0.008932604579924874	180.0	180.0	180.0	1.0681000000000003	0.0	1	-59.99999999999999	59.99999999999999								
	2268	2269	0.00471877332513453	0.037673513068374194	0.07144203405168699	455.99999999999994	455.99999999999994	455.99999999999994	0	0	1	-59.99999999999999	59.99999999999999								
	2268	2269	0.00464160583745129	0.037767269676327694	0.065808905726355	461.00000000000006	461.00000000000006	461.00000000000006	0	0	1	-59.99999999999999	59.99999999999999								
	2269	2270	0.005965317068033853	0.02707416449344809	0.04834607142248052	323.0	323.0	323.0	0	0	1	-59.99999999999999	59.99999999999999								
	2269	2270	0.006190359822582452	0.02790267091651909	0.04900640736034512	322.0	322.0	322.0	0	0	1	-59.99999999999999	59.99999999999999								
	2315	2320	0.03784430952750661	0.05655182605726039	0.00156248425743124	17.0	17.0	17.0	0	0	1	-59.99999999999999	59.99999999999999								
	2315	2320	0.039047904520053404	0.057086060786619285	0.0016678225677805004	17.0	17.0	17.0	0	0	1	-59.99999999999999	59.99999999999999								
	2140	2215	0.003255288496233363	0.1776055064709732	-4.999999999999996e-7	178.0	178.0	178.0	0.9565217391304348	0.0	1	-59.99999999999999	59.99999999999999								
	2146	2319	0.009532488905987244	0.09767915943357781	-4.999999999999498e-7	322.0	322.0	322.0	1.0144927536231885	0.0	1	-59.99999999999999	59.99999999999999								
	2147	2148	0.010628881346071711	0.11768072134886612	-4.999999999999992e-7	268.0	268.0	268.0	0.9595959595959596	0.0	1	-59.99999999999999	59.99999999999999								
	2112	2149	0.019511938913992402	0.38635859628440056	-4.999999999999994e-7	82.0	82.0	82.0	0.9750000000000001	0.0	1	-59.99999999999999	59.99999999999999								
	2112	2150	0.01861327883756891	0.36919372057192235	-4.999999999999994e-7	86.0	86.0	86.0	0.9750000000000001	0.0	1	-59.99999999999999	59.99999999999999								
	2153	2279	0.02274783909243701	0.5521898153837238	-4.999999999999996e-7	57.99999999999999	57.99999999999999	57.99999999999999	0.9875000000000002	0.0	1	-59.99999999999999	59.99999999999999								
	2153	2279	0.02228020432213962	0.5353901843780815	-4.999999999999994e-7	59.0	59.0	59.0	0.9875000000000002	0.0	1	-59.99999999999999	59.99999999999999								
	2155	2280	0.0195879369142855	0.5026231117898807	-4.999999999999996e-7	63.0	63.0	63.0	1.0115400000000003	0.0	1	-59.99999999999999	59.99999999999999								
	2155	2280	0.013518009676650023	0.4953167242241137	-4.999999999999996e-7	64.0	64.0	64.0	1.0116	0.0	1	-59.99999999999999	59.99999999999999								
	2155	2281	0.05773399913138885	0.9508691875113292	-4.999999999999996e-7	34.0	34.0	34.0	1.0454	0.0	1	-59.99999999999999	59.99999999999999								
	2155	2281	0.055209133620990274	0.933929222835966	-4.999999999999996e-7	34.0	34.0	34.0	1.0454	0.0	1	-59.99999999999999	59.99999999999999								
	2157	2282	0.03425957737001294	0.5755431006856939	-4.999999999999996e-7	55.00000000000001	55.00000000000001	55.00000000000001	1.0	0.0	1	-59.99999999999999	59.99999999999999								
	2158	2283	0.11002427483851313	1.3306812355271216	-4.999999999999997e-7	24.0	24.0	24.0	0.9759999999999999	0.0	1	-59.99999999999999	59.99999999999999								
	2158	2284	0.08050912571398718	1.1480548445043417	-4.999999999999994e-7	28.000000000000004	28.000000000000004	28.000000000000004	1.0	0.0	1	-59.99999999999999	59.99999999999999								
	2161	2119	0.007323766870374632	0.2264509920761663	-4.999999999999996e-7	140.0	140.0	140.0	1.0773000000000001	0.0	1	-59.99999999999999	59.99999999999999								
	2162	2285	0.01422239434063141	0.4869818151436167	-4.999999999999997e-7	65.0	65.0	65.0	1.0	0.0	1	-59.99999999999999	59.99999999999999								
	2162	2285	0.014127747894345639	0.4740068768338327	-4.999999999999996e-7	67.0	67.0	67.0	1.0	0.0	1	-59.99999999999999	59.99999999999999								
	2163	2286	0.025468413581530392	0.38445703964554956	-4.999999999999997e-7	82.0	82.0	82.0	0.9875000000000002	0.0	1	-59.99999999999999	59.99999999999999								
	2163	2286	0.026980228258652414	0.40538959715913253	-4.999999999999996e-7	78.0	78.0	78.0	0.975	0.0	1	-59.99999999999999	59.99999999999999								
	2164	2287	0.01314613615126521	0.3239651555628584	-4.999999999999994e-7	98.0	98.0	98.0	1.0136200000000002	0.0	1	-59.99999999999999	59.99999999999999								
	2164	2287	0.012808330240679674	0.3111927895095544	-4.999999999999997e-7	102.0	102.0	102.0	1.0136200000000002	0.0	1	-59.99999999999999	59.99999999999999								
	2165	2288	0.01914506928506942	0.5713596446456417	-4.999999999999996e-7	56.00000000000001	56.00000000000001	56.00000000000001	1.0125	0.0	1	-59.99999999999999	59.99999999999999								
	2165	2288	0.019863786249553612	0.6134921272210796	-4.999999999999996e-7	52.0	52.0	52.0	1.0125	0.0	1	-59.99999999999999	59.99999999999999								
	2167	2289	0.014299536620021626	0.4452631530612916	-4.999999999999996e-7	71.0	71.0	71.0	0.9863600000000001	0.0	1	-59.99999999999999	59.99999999999999								
	2167	2289	0.013823516249825947	0.5450964166200417	-4.999999999999997e-7	57.99999999999999	57.99999999999999	57.99999999999999	0.9863600000000001	0.0	1	-59.99999999999999	59.99999999999999								
	2168	2290	0.019610185348863513	0.5002903542486645	-4.999999999999997e-7	64.0	64.0	64.0	0.975	0.0	1	-59.99999999999999	59.99999999999999								
	2168	2290	0.018343519574745417	0.48752533080723365	-4.999999999999997e-7	65.0	65.0	65.0	0.975	0.0	1	-59.99999999999999	59.99999999999999								
	2168	2290	0.014370884027254624	0.5336041173519038	-4.999999999999996e-7	60.0	60.0	60.0	0.975	0.0	1	-59.99999999999999	59.99999999999999								
	2169	2272	0.02909351806707384	0.6253186648054627	-4.999999999999997e-7	51.0	51.0	51.0	1.0	0.0	1	-59.99999999999999	59.99999999999999								
	2169	2272	0.029513397992301564	0.5927168034815807	-4.999999999999997e-7	54.0	54.0	54.0	0.975	0.0	1	-59.99999999999999	59.99999999999999								
	2170	2291	0.013302535325125618	0.5086869174315637	-4.999999999999994e-7	63.0	63.0	63.0	0.9624999999999999	0.0	1	-59.99999999999999	59.99999999999999								
	2170	2291	0.01346897226667902	0.5155810786140207	-4.999999999999996e-7	62.0	62.0	62.0	0.9624999999999999	0.0	1	-59.99999999999999	59.99999999999999								
	2171	2273	0.026233101624880805	0.38608973305057054	-4.999999999999996e-7	82.0	82.0	82.0	0.9624999999999999	0.0	1	-59.99999999999999	59.99999999999999								
	2171	2273	0.02761270856227904	0.41631139660051353	-4.999999999999996e-7	76.0	76.0	76.0	0.9624999999999999	0.0	1	-59.99999999999999	59.99999999999999								
	2173	2292	0.029445670258711854	0.6075789816262227	-4.999999999999996e-7	52.0	52.0	52.0	1.02556	0.0	1	-59.99999999999999	59.99999999999999								
	2173	2292	0.007759799710257271	0.5121177249583325	-4.999999999999997e-7	62.0	62.0	62.0	1.02556	0.0	1	-59.99999999999999	59.99999999999999								
	2177	2293	0.011936535417979411	0.2681257286367023	-4.999999999999997e-7	118.0	118.0	118.0	1.0	0.0	1	-59.99999999999999	59.99999999999999								
	2177	2293	0.011578205955617015	0.24846266968263542	-4.999999999999996e-7	127.0	127.0	127.0	1.0	0.0	1	-59.99999999999999	59.99999999999999								
	2178	2294	0.05970782961704019	0.9098111633720739	-4.999999999999996e-7	35.0	35.0	35.0	1.0495	0.0	1	-59.99999999999999	59.99999999999999								
	2127	2323	0.005524880817018946	0.20424135935229762	0.0009991942162049182	155.0	155.0	155.0	1.0	0.0	1	-59.99999999999999	59.99999999999999								
	2128	2323	0.005611123869084982	0.21290766950026882	8.821841429920742e-5	149.0	149.0	149.0	1.0	0.0	1	-59.99999999999999	59.99999999999999								
	2186	2133	0.008437636167043662	0.20065913622631928	-4.999999999999996e-7	158.0	158.0	158.0	1.04545	0.0	1	-59.99999999999999	59.99999999999999								
	2186	2296	0.021306067871434558	0.5145790373619108	-4.999999999999994e-7	62.0	62.0	62.0	0.964	0.0	1	-59.99999999999999	59.99999999999999								
	2189	2297	0.12306736661339321	1.5253341114749523	-4.999999999999996e-7	21.0	21.0	21.0	1.0	0.0	1	-59.99999999999999	59.99999999999999								
	2190	2274	0.02902351477711171	0.636134454326772	-4.999999999999996e-7	50.0	50.0	50.0	0.9999999999999998	0.0	1	-59.99999999999999	59.99999999999999								
	2190	2274	0.02148680494982924	0.645020761555939	-4.999999999999997e-7	49.0	49.0	49.0	0.9999999999999998	0.0	1	-59.99999999999999	59.99999999999999								
	2192	2298	0.028161551175445207	0.6254614832127205	-4.999999999999996e-7	51.0	51.0	51.0	1.0122199999999997	0.0	1	-59.99999999999999	59.99999999999999								
	2192	2299	0.0201050772011017	0.6624090463696448	-4.999999999999998e-7	48.0	48.0	48.0	1.0122199999999997	0.0	1	-59.99999999999999	59.99999999999999								
	2194	2336	0.006751310105698009	0.3051150340680512	-4.999999999999997e-7	104.0	104.0	104.0	1.0125	0.0	1	-59.99999999999999	59.99999999999999								
	2194	2336	0.007065886065249158	0.29833680444895944	-4.999999999999996e-7	106.0	106.0	106.0	1.0125	0.0	1	-59.99999999999999	59.99999999999999								
	2194	2336	0.00719841202807316	0.29784943083101134	-4.999999999999997e-7	107.0	107.0	107.0	1.0125	0.0	1	-59.99999999999999	59.99999999999999								
	2195	2277	0.007004022795820435	0.4225635170864985	-4.999999999999994e-7	75.0	75.0	75.0	0.97724	0.0	1	-59.99999999999999	59.99999999999999								
	2195	2277	0.006833645576761862	0.3926293569854483	-4.999999999999994e-7	81.0	81.0	81.0	0.97724	0.0	1	-59.99999999999999	59.99999999999999								
	2195	2277	0.006954519499281219	0.3867583302247085	-4.999999999999996e-7	82.0	82.0	82.0	0.97724	0.0	1	-59.99999999999999	59.99999999999999								
	2195	2324	9.999999965657482e-10	0.1012205199689571	-4.999999999999996e-7	313.0	313.0	313.0	0.9757799999999999	0.0	1	-59.99999999999999	59.99999999999999								
	2195	2325	9.999999892897906e-10	0.09663653802929532	-4.999999999999997e-7	327.0	327.0	327.0	0.9757799999999999	0.0	1	-59.99999999999999	59.99999999999999								
	2195	2326	9.999999965657482e-10	0.10144247184568314	-4.999999999999997e-7	312.0	312.0	312.0	0.9757799999999999	0.0	1	-59.99999999999999	59.99999999999999								
	2198	2278	0.01558742841685357	0.40071454999181655	-4.999999999999997e-7	79.0	79.0	79.0	1.0	0.0	1	-59.99999999999999	59.99999999999999								
	2198	2278	0.015393558037147686	0.3880701541568405	-4.999999999999996e-7	82.0	82.0	82.0	1.0	0.0	1	-59.99999999999999	59.99999999999999								
	2200	2304	0.021592668604088774	0.691785922603442	-4.999999999999997e-7	46.0	46.0	46.0	1.0	0.0	1	-59.99999999999999	59.99999999999999								
	2201	2305	0.022506582037850113	0.6654336956367477	-4.999999999999996e-7	48.0	48.0	48.0	1.0	0.0	1	-59.99999999999999	59.99999999999999								
	2202	2306	0.019578934151438826	0.5458474759919036	-4.999999999999996e-7	57.99999999999999	57.99999999999999	57.99999999999999	1.0	0.0	1	-59.99999999999999	59.99999999999999								
	2202	2307	0.020011691177023432	0.5114155089045337	-4.999999999999998e-7	62.0	62.0	62.0	1.0	0.0	1	-59.99999999999999	59.99999999999999								
	2204	2199	0.01604703861590638	0.38242768621873335	-4.999999999999997e-7	83.0	83.0	83.0	0.9317200000000001	0.0	1	-59.99999999999999	59.99999999999999								
	2204	2199	0.01677843692636292	0.3816909193583043	-4.999999999999994e-7	83.0	83.0	83.0	0.9317200000000001	0.0	1	-59.99999999999999	59.99999999999999								
	2204	2308	0.021325895349923293	0.6891870951266797	-4.999999999999998e-7	46.0	46.0	46.0	1.0	0.0	1	-59.99999999999999	59.99999999999999								
	2204	2309	0.021849303398134075	0.6430706891268377	-4.999999999999994e-7	50.0	50.0	50.0	0.98778	0.0	1	-59.99999999999999	59.99999999999999								
	2207	2310	0.02146288611821071	0.4854768743724026	-4.999999999999997e-7	66.0	66.0	66.0	1.0	0.0	1	-59.99999999999999	59.99999999999999								
	2207	2310	0.021166845280264305	0.47465319543265955	-4.999999999999994e-7	67.0	67.0	67.0	1.0	0.0	1	-59.99999999999999	59.99999999999999								
	2208	2311	0.04044044266582642	0.7965946698725809	-4.999999999999996e-7	40.0	40.0	40.0	0.9624999999999999	0.0	1	-59.99999999999999	59.99999999999999								
	2209	2311	0.038317016708508025	0.869999160802646	-4.999999999999996e-7	37.0	37.0	37.0	0.975	0.0	1	-59.99999999999999	59.99999999999999								
	2210	2312	0.0539738688496147	0.9961065034079766	-4.999999999999994e-7	32.0	32.0	32.0	1.0	0.0	1	-59.99999999999999	59.99999999999999								
	2210	2312	0.056657310183729985	1.0014866632896813	-4.999999999999994e-7	32.0	32.0	32.0	1.0	0.0	1	-59.99999999999999	59.99999999999999								
	2212	2313	0.02818737956806261	0.6461877692499358	-4.999999999999997e-7	49.0	49.0	49.0	0.975	0.0	1	-59.99999999999999	59.99999999999999								
	2190	2314	0.01695468611451035	0.624685969925339	-4.999999999999996e-7	51.0	51.0	51.0	1.0	0.0	1	-59.99999999999999	59.99999999999999								
	2190	2314	0.01614174751179462	0.6275296617367239	-4.999999999999996e-7	51.0	51.0	51.0	1.0	0.0	1	-59.99999999999999	59.99999999999999								
	2214	2138	9.999999892897906e-10	0.18985169189988024	-4.999999999999997e-7	167.0	167.0	167.0	0.98818	0.0	1	-59.99999999999999	59.99999999999999								
	2214	2139	1.0000000038417058e-9	0.17518627539299617	-4.999999999999994e-7	181.0	181.0	181.0	0.98818	0.0	1	-59.99999999999999	59.99999999999999								
	2214	2315	0.00883536152430979	0.5047997504165787	-4.999999999999996e-7	63.0	63.0	63.0	1.0127799999999998	0.0	1	-59.99999999999999	59.99999999999999								
	2214	2315	0.009224831533792284	0.49638138983670876	-4.999999999999996e-7	64.0	64.0	64.0	1.0127799999999998	0.0	1	-59.99999999999999	59.99999999999999								
	2214	2315	0.008897677536464123	0.5044125788777437	-4.999999999999996e-7	63.0	63.0	63.0	1.0127799999999998	0.0	1	-59.99999999999999	59.99999999999999								
...
];

%%-----  OPF Data  -----%%
%% cost data
%    1    startup    shutdown    n    x1    y1    ...    xn    yn
%    2    startup    shutdown    n    c(n-1)    ...    c0
mpc.gencost = [
	2	0.0	0.0	2	0.001	0.0
	2	0.0	0.0	2	0.001	0.0
	2	0.0	0.0	2	0.001	0.0
	2	0.0	0.0	2	0.001	0.0
	2	0.0	0.0	2	0.001	0.0
	2	0.0	0.0	2	0.001	0.0
	2	0.0	0.0	2	0.001	0.0
	2	100.0	0.0	2	12.021004566210046	0.0
	2	0.0	0.0	2	0.001	0.0
	2	0.0	0.0	2	0.001	0.0
	2	0.0	0.0	2	0.001	0.0
	2	0.0	0.0	2	0.001	0.0
	2	0.0	0.0	2	0.001	0.0
	2	0.0	0.0	2	0.001	0.0
	2	0.0	0.0	2	0.001	0.0
	2	0.0	0.0	2	0.001	0.0
	2	0.0	0.0	2	0.001	0.0
	2	0.0	0.0	2	0.001	0.0
	2	0.0	0.0	2	0.001	0.0
	2	0.0	0.0	2	0.001	0.0
	2	0.0	0.0	2	0.001	0.0
	2	100.0	0.0	2	12.021004566210046	0.0
	2	0.0	0.0	2	0.001	0.0
	2	0.0	0.0	2	0.001	0.0
	2	0.0	0.0	2	0.001	0.0
	2	0.0	0.0	2	0.001	0.0
	2	0.0	0.0	2	0.001	0.0
	2	0.0	0.0	2	0.001	0.0
	2	0.0	0.0	2	0.001	0.0
	2	100.0	0.0	2	12.021004566210046	0.0
	2	0.0	0.0	2	0.001	0.0
	2	0.0	0.0	2	0.001	0.0
	2	0.0	0.0	2	0.001	0.0
	2	0.0	0.0	2	0.001	0.0
	2	100.0	0.0	2	9.921004566210046	0.0
];

%% bus names
mpc.bus_name = {
	'bus_5000'
	'bus_5004'
	'bus_5005'
	'bus_5006'
	'bus_5008'
	'bus_5010'
	'bus_5012'
	'bus_5013'
	'bus_5014'
	'bus_5015'
	'bus_5016'
	'bus_5017'
	'bus_5018'
	'bus_5019'
	'bus_5020'
	'bus_5021'
	'bus_5022'
	'bus_5023'
	'bus_5026'
	'bus_5028'
	'bus_5030'
	'bus_5031'
	'bus_5032'
	'bus_5033'
	'bus_5034'
	'bus_5035'
	'bus_5036'
	'bus_5037'
	'bus_5038'
	'bus_5039'
	'bus_5040'
	'bus_5041'
	'bus_5042'
	'bus_5043'
	'bus_5044'
	'bus_5045'
	'bus_5046'
	'bus_5047'
	'bus_5049'
	'bus_5050'
	'bus_5052'
	'bus_5053'
	'bus_5054'
	'bus_5055'
	'bus_5057'
	'bus_5058'
	'bus_5059'
	'bus_5060'
	'bus_5061'
	'bus_5062'
	'bus_5063'
	'bus_5064'
	'bus_5065'
	'bus_5066'
	'bus_5067'
	'bus_5068'
	'bus_5069'
	'bus_5070'
	'bus_5071'
	'bus_5072'
	'bus_5073'
	'bus_5074'
	'bus_5075'
	'bus_5077'
	'bus_5080'
	'bus_5083'
	'bus_5086'
	'bus_5087'
	'bus_5089'
	'bus_5090'
	'bus_5091'
	'bus_5092'
	'bus_5095'
	'bus_5096'
	'bus_5097'
	'bus_5098'
	'bus_5099'
	'bus_5100'
	'bus_5101'
	'bus_5102'
	'bus_5103'
	'bus_5104'
	'bus_5105'
	'bus_5106'
	'bus_5109'
	'bus_5111'
	'bus_5113'
	'bus_5114'
	'bus_5116'
	'bus_5118'
	'bus_5119'
	'bus_5120'
	'bus_5121'
	'bus_5122'
	'bus_5123'
	'bus_5124'
	'bus_5125'
	'bus_5126'
	'bus_5127'
	'bus_5128'
	'bus_5130'
	'bus_5131'
	'bus_5132'
	'bus_5133'
	'bus_5134'
	'bus_5136'
	'bus_5137'
	'bus_5139'
	'bus_5140'
	'bus_5141'
	'bus_5142'
	'bus_5143'
	'bus_5144'
	'bus_5147'
	'bus_5149'
	'bus_5150'
	'bus_5155'
	'bus_5159'
	'bus_5161'
	'bus_5162'
	'bus_5163'
	'bus_5168'
	'bus_5169'
	'bus_5170'
	'bus_5172'
	'bus_5173'
	'bus_5174'
	'bus_5175'
	'bus_5176'
	'bus_5177'
	'bus_5178'
	'bus_5179'
	'bus_5180'
	'bus_5181'
	'bus_5182'
	'bus_5183'
	'bus_5184'
	'bus_5185'
	'bus_5186'
	'bus_5187'
	'bus_5188'
	'bus_5189'
	'bus_5190'
	'bus_5191'
	'bus_5192'
	'bus_5193'
	'bus_5194'
	'bus_5195'
	'bus_5196'
	'bus_5197'
	'bus_5198'
	'bus_5199'
	'bus_5200'
	'bus_5201'
	'bus_5202'
	'bus_5203'
	'bus_5204'
	'bus_5205'
	'bus_5206'
	'bus_5207'
	'bus_5208'
	'bus_5209'
	'bus_5210'
	'bus_5211'
	'bus_5212'
	'bus_5213'
	'bus_5214'
	'bus_5215'
	'bus_5216'
	'bus_5217'
	'bus_5218'
	'bus_5219'
	'bus_5220'
	'bus_5221'
	'bus_5222'
	'bus_5223'
	'bus_5224'
	'bus_5225'
	'bus_5226'
	'bus_5228'
	'bus_5229'
	'bus_5230'
	'bus_5231'
	'bus_5233'
	'bus_5234'
	'bus_5235'
	'bus_5236'
	'bus_5237'
	'bus_5238'
	'bus_5240'
	'bus_5241'
	'starbus_xf_5087_5175_5176_3'
	'starbus_xf_5088_5175_5241_4'
	'starbus_xf_5090_5200_5201_5'
	'starbus_xf_5090_5200_5201_6'
	'starbus_xf_5093_5202_5203_1'
	'starbus_xf_5094_5202_5203_2'
};

%column_names% x y 
mpc.bus_data = {
	1877	-5949
	1010	-5711
	957	-5707
	1074	-5702
	1267	-5579
	1046	-5556
	1636	-5524
	600	-5403
	558	-5358
	565	-5371
	581	-5395
	853	-5363
	860	-5378
	1528	-6369
	1454	-6257
	1400	-6283
	1299	-6237
	1281	-6229
	1317	-6224
	435	-6210
	1311	-6355
	630	-6240
	600	-6227
	609	-6237
	929	-5929
	750	-5680
	759	-5693
	1044	-5875
	1082	-5891
	910	-5711
	883	-5645
	949	-5712
	888	-5675
	2004	-5764
	1992	-5708
	2045	-5746
	1861	-5958
	1837	-5960
	742	-5731
	765	-5745
	522	-5879
	811	-5700
	642	-5751
	584	-5883
	1417	-5541
	1584	-5507
	1761	-5608
	1696	-5591
	1590	-5552
	1689	-5561
	1434	-5510
	1692	-5528
	1501	-5533
	1486	-5546
	1450	-5558
	383	-5832
	495	-5796
	778	-5332
	889	-5317
	819	-5329
	1449	-5728
	1372	-5727
	1603	-5786
	1415	-6262
	1233	-6112
	1281	-6304
	1461	-6328
	1139	-6349
	1146	-6037
	898	-6262
	995	-6295
	997	-6215
	1111	-6098
	656	-6456
	1355	-6119
	1062	-6237
	1379	-6154
	1251	-6125
	715	-6409
	790	-6368
	796	-6353
	745	-6429
	621	-6579
	715	-6468
	621	-6620
	1123	-6149
	830	-5662
	1075	-5837
	1193	-5956
	1112	-5788
	1073	-5646
	1056	-5668
	1133	-5863
	507	-5712
	1287	-5684
	423	-5742
	1608	-5594
	418	-5827
	708	-5350
	1903	-5666
	1138	-5920
	1251	-6104
	1077	-6174
	1050	-6217
	1276	-6144
	651	-6556
	1725	-5846
	1012	-5664
	976	-5663
	1060	-5659
	1013	-5622
	1008	-5612
	1222	-5533
	1079	-5510
	1155	-5495
	904	-5344
	814	-6003
	614	-6127
	678	-6194
	805	-6131
	1046	-5970
	971	-5848
	1051	-5654
	1031	-5503
	1502	-5586
	301	-5861
	1161	-6383
	1142	-6389
	1127	-6405
	981	-6261
	1068	-6138
	762	-5772
	466	-5914
	443	-5908
	569	-5783
	535	-5915
	565	-5918
	1808	-5646
	1731	-5633
	1632	-5585
	1749	-5589
	1759	-5548
	1531	-5566
	1454	-5600
	722	-5364
	1390	-5771
	1629	-5829
	1325	-6234
	1288	-6358
	1485	-6382
	1106	-6069
	1131	-6078
	834	-6302
	850	-6309
	941	-6397
	960	-6395
	1418	-6149
	1049	-6287
	1446	-6186
	1425	-6195
	643	-6447
	677	-6458
	712	-6485
	662	-6530
	593	-6670
	1161	-6181
	1122	-6320
	711	-5677
	1116	-5827
	413	-5730
	1292	-5726
	1965	-5720
	627	-5695
	1131	-5961
	546	-6661
	1291	-6185
	929	-6253
	944	-6257
	954	-6264
	1311	-5662
	1118	-5569
	1015	-5530
	748	-6038
	769	-6046
	577	-6079
	437	-6122
	423	-6111
	963	-6343
	915	-6284
	1125	-5907
	1162	-6405
	1139	-6349
	1157	-6348
	898	-6262
	898	-6262
	958	-6360
	973	-6363
};

%column_names% startup_warm_(dollar/MW) startup_hot_(dollar/MW) Ramp_Up_Rate(MW/h) name fuel startup_cold(dollar/MW) Maintenance(days/yr) Minimum_Off_Time(Hours) fixed_op_cost(dollar/MW/year) variable_op_cost(dollar/MWh_sent_out) noload_cost(dollar/MW/year) noload_recurring_cost(dollar/MW/year) Minimum_On_Time(Hours) Ramp_Down_Rate(MW/h) type 
mpc.gen_data = {
	300.0	200.0	9400000	'gen_5004_1'	'Water'	500.0	7.0	1	5670000	700.0	50000	20000	1	94000	'Hydro'
	300.0	200.0	9400000	'gen_5005_2'	'Water'	500.0	7.0	1	5670000	700.0	50000	20000	1	94000	'Hydro'
...